Circuit: *

Direct Newton iteration for .op point succeeded.
Operating Bias Point Solution:
           V(a)                 10   voltage
           V(b)                7.5   voltage
           V(c)                  5   voltage
          I(R3)               0.25   device_current
          I(R2)               0.25   device_current
          I(R1)               0.25   device_current
          I(V1)              -0.25   device_current


Date: Thu Feb 20 08:03:36 2014
Total elapsed time: 0.017 seconds.

tnom = 27
temp = 27
method = trap
totiter = 3
traniter = 0
tranpoints = 0
accept = 0
rejected = 0
matrix size = 4
fillins = 0
solver = Normal
Matrix Compiler1: 100 object code size
Matrix Compiler2:      21 opcodes

